VERS 151019 1953 27544
MODE SEQ
NAME 
PFIL 0 0 0
LANG 0
UNIT MM X W X CM MR CPMM
ENPD 2.0E+3
ENVD 2.0E+1 1 0
GFAC 0 0
GCAT SCHOTT
RAIM 0 2 1 1 0 1 0 0 0
PUSH 0 0 0 0 0 0
SDMA 0 1 0
FTYP 0 0 5 2 0 0 0
ROPD 2
PICB 1
XFLN 0 0 0 0 0 0 0 0 0 0 0 0
YFLN 0 9.45E-2 1.89E-1 3.78E-1 6.615E-1 0 0 0 0 0 0 0
FWGN 1 1 1 1 1 1 1 1 1 1 1 1
VDXN 0 0 0 0 0 0 0 0 0 0 0 0
VDYN 0 0 0 0 0 0 0 0 0 0 0 0
VCXN 0 0 0 0 0 0 0 0 0 0 0 0
VCYN 0 0 0 0 0 0 0 0 0 0 0 0
VANN 0 0 0 0 0 0 0 0 0 0 0 0
WAVM 1 2.4E+2 1
WAVM 2 4.2E+2 1
WAVM 3 3.75E+2 1
WAVM 4 3.525E+2 1
WAVM 5 2.4E+2 1
WAVM 6 5.5E-1 1
WAVM 7 5.5E-1 1
WAVM 8 5.5E-1 1
WAVM 9 5.5E-1 1
WAVM 10 5.5E-1 1
WAVM 11 5.5E-1 1
WAVM 12 5.5E-1 1
WAVM 13 5.5E-1 1
WAVM 14 5.5E-1 1
WAVM 15 5.5E-1 1
WAVM 16 5.5E-1 1
WAVM 17 5.5E-1 1
WAVM 18 5.5E-1 1
WAVM 19 5.5E-1 1
WAVM 20 5.5E-1 1
WAVM 21 5.5E-1 1
WAVM 22 5.5E-1 1
WAVM 23 5.5E-1 1
WAVM 24 5.5E-1 1
PWAV 1
POLS 1 0 1 0 0 1 0
GLRS 3 0
GSTD 0 100.000 100.000 100.000 100.000 100.000 100.000 0 1 1 0 0 1 1 1 1 1 1
NSCD 100 500 0 1.0E-3 5 1.0E-6 0 0 0 0 0 0 1000000 0 2
COFN QF "COATING.DAT" "SCATTER_PROFILE.DAT" "ABG_DATA.DAT" "PROFILE.GRD"
COFN COATING.DAT SCATTER_PROFILE.DAT ABG_DATA.DAT PROFILE.GRD
SURF 0
  TYPE STANDARD
  FIMP 

  CURV 0.0 0 0 0 0 ""
  HIDE 0 0 0 0 0 0 0 0 0 0
  MIRR 2 0
  SLAB 6
  DISZ INFINITY
  DIAM 0 0 0 0 1 ""
  POPS 0 0 0 0 0 0 0 0 1 1 1 1 0 0 0 0
SURF 1
  COMM Spider
  TYPE STANDARD
  FIMP 

  CURV 0.0 0 0 0 0 ""
  HIDE 0 0 0 0 0 0 0 0 0 0
  MIRR 2 0
  SLAB 9
  DISZ 0
  DIAM 1.015529189743E+3 0 0 0 1 ""
  POPS 0 0 0 0 0 0 0 0 1 1 1 1 0 0 0 0
  SPID 5.0E+1 3.0 0
SURF 2
  COMM Obscuration
  TYPE STANDARD
  FIMP 

  CURV 0.0 0 0 0 0 ""
  HIDE 0 0 0 0 0 0 0 0 0 0
  MIRR 2 0
  SLAB 3
  DISZ 1.47E+3
  DIAM 1.015529189743E+3 0 0 0 1 ""
  POPS 0 0 0 0 0 0 0 0 1 1 1 1 0 0 0 0
  OBSC 0 2.9E+2 0
SURF 3
  COMM Primary
  STOP
  TYPE STANDARD
  FIMP 

  CURV -2.500000000000000100E-004 0 0 0 0 ""
  HIDE 0 0 0 0 0 0 0 0 0 0
  MIRR 2 0
  SLAB 7
  DISZ -2.E+3
  GLAS MIRROR 0 0 1.5 4.0E+1 0 0 0 0 0 0 
  CONI -1.
  PZUP 3.0 5.0E-1 0 1
  DIAM 1.0E+3 0 0 0 1 ""
  POPS 0 0 0 0 0 0 0 0 1 1 1 1 0 0 0 0
  CLAP 2.5E+2 1.0E+3 0
SURF 4
  COMM Primary Focus
  TYPE STANDARD
  FIMP 

  CURV 0.0 0 0 0 0 ""
  HIDE 0 0 1 0 0 0 0 1 0 0
  MIRR 2 0
  SLAB 1
  DISZ 2.0E+3
  PZUP 3.0 -1. 0 0
  DIAM 2.797858033972E+1 0 0 0 1 ""
  POPS 0 0 0 0 0 0 0 0 1 1 1 1 0 0 0 0
SURF 5
  COMM Mirror Spacing
  TYPE STANDARD
  FIMP 

  CURV 0.0 0 0 0 0 ""
  HIDE 0 0 1 0 0 0 0 1 0 0
  MIRR 2 0
  SLAB 8
  DISZ -1.47E+3
  PZUP 2 -1. 0 0
  DIAM 1.068531905308E+3 0 0 0 1 ""
  POPS 0 0 0 0 0 0 0 0 1 1 1 1 0 0 0 0
SURF 6
  COMM Secondary
  TYPE STANDARD
  FIMP 

  CURV -7.075488385585815200E-004 0 0 0 0 ""
  HIDE 0 0 0 0 0 0 0 0 0 0
  MIRR 2 0
  SLAB 2
  DISZ 1.47E+3
  GLAS MIRROR 0 0 1.5 4.0E+1 0 0 0 0 0 0 
  CONI -2.807833947813
  PZUP 5.0 -1. 0 0
  DIAM 2.875906626329E+2 0 0 0 1 ""
  VCON
  POPS 0 0 0 0 0 0 0 0 1 1 1 1 0 0 0 0
  CLAP 0 2.9E+2 0
SURF 7
  COMM Primary Hole
  TYPE STANDARD
  FIMP 

  CURV 0.0 0 0 0 0 ""
  HIDE 0 0 1 0 0 0 0 0 0 0
  MIRR 2 0
  SLAB 4
  DISZ 6.463371523962E+2
  VDSZ 0 0
  DIAM 1.511350679862E+2 0 0 0 1 ""
  POPS 0 0 0 0 0 0 0 0 1 1 1 1 0 0 0 0
SURF 8
  TYPE STANDARD
  FIMP 

  CURV 0.0 0 0 0 0 ""
  HIDE 0 0 0 0 0 0 0 0 0 0
  MIRR 2 0
  SLAB 5
  DISZ 0
  DIAM 9.43204254867E+1 0 0 0 1 ""
  POPS 0 0 0 0 0 0 0 0 1 1 1 1 0 0 0 0
CONF 1 0 0 0 0 0 0 0 0 0
DMFS 0 0 0 0 0 0 0 0 0 0
BLNK Sequential merit function: RMS wavefront centroid GQ 3 rings 6 arms
BLNK Pupil obscuration = 0.2150
BLNK No air or glass constraints.
BLNK Operands for field 1.
OPDX 0 1 0 0 1.960338178077E-1 3.395405324447E-1 0 1.454441043329E-2 0 0
OPDX 0 1 0 0 3.616325828794E-1 6.263660072194E-1 0 2.327105669326E-2 0 0
OPDX 0 1 0 0 4.723631995358E-1 8.181570612218E-1 0 1.454441043329E-2 0 0
OPDX 0 1 0 0 3.920676356155E-1 0 0 1.454441043329E-2 0 0
OPDX 0 1 0 0 7.232651657587E-1 0 0 2.327105669326E-2 0 0
OPDX 0 1 0 0 9.447263990717E-1 0 0 1.454441043329E-2 0 0
OPDX 0 1 0 0 1.960338178077E-1 -3.395405324447E-1 0 1.454441043329E-2 0 0
OPDX 0 1 0 0 3.616325828794E-1 -6.263660072194E-1 0 2.327105669326E-2 0 0
OPDX 0 1 0 0 4.723631995358E-1 -8.181570612218E-1 0 1.454441043329E-2 0 0
OPDX 0 1 0 0 -1.960338178077E-1 -3.395405324447E-1 0 1.454441043329E-2 0 0
OPDX 0 1 0 0 -3.616325828794E-1 -6.263660072194E-1 0 2.327105669326E-2 0 0
OPDX 0 1 0 0 -4.723631995358E-1 -8.181570612218E-1 0 1.454441043329E-2 0 0
OPDX 0 1 0 0 -3.920676356155E-1 3.002115755159E-16 0 1.454441043329E-2 0 0
OPDX 0 1 0 0 -7.232651657587E-1 5.538140749296E-16 0 2.327105669326E-2 0 0
OPDX 0 1 0 0 -9.447263990717E-1 7.233899841071E-16 0 1.454441043329E-2 0 0
OPDX 0 1 0 0 -1.960338178077E-1 3.395405324447E-1 0 1.454441043329E-2 0 0
OPDX 0 1 0 0 -3.616325828794E-1 6.263660072194E-1 0 2.327105669326E-2 0 0
OPDX 0 1 0 0 -4.723631995358E-1 8.181570612218E-1 0 1.454441043329E-2 0 0
OPDX 0 2 0 0 1.960338178077E-1 3.395405324447E-1 0 1.454441043329E-2 0 0
OPDX 0 2 0 0 3.616325828794E-1 6.263660072194E-1 0 2.327105669326E-2 0 0
OPDX 0 2 0 0 4.723631995358E-1 8.181570612218E-1 0 1.454441043329E-2 0 0
OPDX 0 2 0 0 3.920676356155E-1 0 0 1.454441043329E-2 0 0
OPDX 0 2 0 0 7.232651657587E-1 0 0 2.327105669326E-2 0 0
OPDX 0 2 0 0 9.447263990717E-1 0 0 1.454441043329E-2 0 0
OPDX 0 2 0 0 1.960338178077E-1 -3.395405324447E-1 0 1.454441043329E-2 0 0
OPDX 0 2 0 0 3.616325828794E-1 -6.263660072194E-1 0 2.327105669326E-2 0 0
OPDX 0 2 0 0 4.723631995358E-1 -8.181570612218E-1 0 1.454441043329E-2 0 0
OPDX 0 2 0 0 -1.960338178077E-1 -3.395405324447E-1 0 1.454441043329E-2 0 0
OPDX 0 2 0 0 -3.616325828794E-1 -6.263660072194E-1 0 2.327105669326E-2 0 0
OPDX 0 2 0 0 -4.723631995358E-1 -8.181570612218E-1 0 1.454441043329E-2 0 0
OPDX 0 2 0 0 -3.920676356155E-1 3.002115755159E-16 0 1.454441043329E-2 0 0
OPDX 0 2 0 0 -7.232651657587E-1 5.538140749296E-16 0 2.327105669326E-2 0 0
OPDX 0 2 0 0 -9.447263990717E-1 7.233899841071E-16 0 1.454441043329E-2 0 0
OPDX 0 2 0 0 -1.960338178077E-1 3.395405324447E-1 0 1.454441043329E-2 0 0
OPDX 0 2 0 0 -3.616325828794E-1 6.263660072194E-1 0 2.327105669326E-2 0 0
OPDX 0 2 0 0 -4.723631995358E-1 8.181570612218E-1 0 1.454441043329E-2 0 0
BLNK Operands for field 2.
OPDX 0 1 0 1.428571428571E-1 1.960338178077E-1 3.395405324447E-1 0 1.454441043329E-2 0 0
OPDX 0 1 0 1.428571428571E-1 3.616325828794E-1 6.263660072194E-1 0 2.327105669326E-2 0 0
OPDX 0 1 0 1.428571428571E-1 4.723631995358E-1 8.181570612218E-1 0 1.454441043329E-2 0 0
OPDX 0 1 0 1.428571428571E-1 3.920676356155E-1 0 0 1.454441043329E-2 0 0
OPDX 0 1 0 1.428571428571E-1 7.232651657587E-1 0 0 2.327105669326E-2 0 0
OPDX 0 1 0 1.428571428571E-1 9.447263990717E-1 0 0 1.454441043329E-2 0 0
OPDX 0 1 0 1.428571428571E-1 1.960338178077E-1 -3.395405324447E-1 0 1.454441043329E-2 0 0
OPDX 0 1 0 1.428571428571E-1 3.616325828794E-1 -6.263660072194E-1 0 2.327105669326E-2 0 0
OPDX 0 1 0 1.428571428571E-1 4.723631995358E-1 -8.181570612218E-1 0 1.454441043329E-2 0 0
OPDX 0 1 0 1.428571428571E-1 -1.960338178077E-1 -3.395405324447E-1 0 1.454441043329E-2 0 0
OPDX 0 1 0 1.428571428571E-1 -3.616325828794E-1 -6.263660072194E-1 0 2.327105669326E-2 0 0
OPDX 0 1 0 1.428571428571E-1 -4.723631995358E-1 -8.181570612218E-1 0 1.454441043329E-2 0 0
OPDX 0 1 0 1.428571428571E-1 -3.920676356155E-1 3.002115755159E-16 0 1.454441043329E-2 0 0
OPDX 0 1 0 1.428571428571E-1 -7.232651657587E-1 5.538140749296E-16 0 2.327105669326E-2 0 0
OPDX 0 1 0 1.428571428571E-1 -9.447263990717E-1 7.233899841071E-16 0 1.454441043329E-2 0 0
OPDX 0 1 0 1.428571428571E-1 -1.960338178077E-1 3.395405324447E-1 0 1.454441043329E-2 0 0
OPDX 0 1 0 1.428571428571E-1 -3.616325828794E-1 6.263660072194E-1 0 2.327105669326E-2 0 0
OPDX 0 1 0 1.428571428571E-1 -4.723631995358E-1 8.181570612218E-1 0 1.454441043329E-2 0 0
OPDX 0 2 0 1.428571428571E-1 1.960338178077E-1 3.395405324447E-1 0 1.454441043329E-2 0 0
OPDX 0 2 0 1.428571428571E-1 3.616325828794E-1 6.263660072194E-1 0 2.327105669326E-2 0 0
OPDX 0 2 0 1.428571428571E-1 4.723631995358E-1 8.181570612218E-1 0 1.454441043329E-2 0 0
OPDX 0 2 0 1.428571428571E-1 3.920676356155E-1 0 0 1.454441043329E-2 0 0
OPDX 0 2 0 1.428571428571E-1 7.232651657587E-1 0 0 2.327105669326E-2 0 0
OPDX 0 2 0 1.428571428571E-1 9.447263990717E-1 0 0 1.454441043329E-2 0 0
OPDX 0 2 0 1.428571428571E-1 1.960338178077E-1 -3.395405324447E-1 0 1.454441043329E-2 0 0
OPDX 0 2 0 1.428571428571E-1 3.616325828794E-1 -6.263660072194E-1 0 2.327105669326E-2 0 0
OPDX 0 2 0 1.428571428571E-1 4.723631995358E-1 -8.181570612218E-1 0 1.454441043329E-2 0 0
OPDX 0 2 0 1.428571428571E-1 -1.960338178077E-1 -3.395405324447E-1 0 1.454441043329E-2 0 0
OPDX 0 2 0 1.428571428571E-1 -3.616325828794E-1 -6.263660072194E-1 0 2.327105669326E-2 0 0
OPDX 0 2 0 1.428571428571E-1 -4.723631995358E-1 -8.181570612218E-1 0 1.454441043329E-2 0 0
OPDX 0 2 0 1.428571428571E-1 -3.920676356155E-1 3.002115755159E-16 0 1.454441043329E-2 0 0
OPDX 0 2 0 1.428571428571E-1 -7.232651657587E-1 5.538140749296E-16 0 2.327105669326E-2 0 0
OPDX 0 2 0 1.428571428571E-1 -9.447263990717E-1 7.233899841071E-16 0 1.454441043329E-2 0 0
OPDX 0 2 0 1.428571428571E-1 -1.960338178077E-1 3.395405324447E-1 0 1.454441043329E-2 0 0
OPDX 0 2 0 1.428571428571E-1 -3.616325828794E-1 6.263660072194E-1 0 2.327105669326E-2 0 0
OPDX 0 2 0 1.428571428571E-1 -4.723631995358E-1 8.181570612218E-1 0 1.454441043329E-2 0 0
BLNK Operands for field 3.
OPDX 0 1 0 2.857142857143E-1 1.960338178077E-1 3.395405324447E-1 0 1.454441043329E-2 0 0
OPDX 0 1 0 2.857142857143E-1 3.616325828794E-1 6.263660072194E-1 0 2.327105669326E-2 0 0
OPDX 0 1 0 2.857142857143E-1 4.723631995358E-1 8.181570612218E-1 0 1.454441043329E-2 0 0
OPDX 0 1 0 2.857142857143E-1 3.920676356155E-1 0 0 1.454441043329E-2 0 0
OPDX 0 1 0 2.857142857143E-1 7.232651657587E-1 0 0 2.327105669326E-2 0 0
OPDX 0 1 0 2.857142857143E-1 9.447263990717E-1 0 0 1.454441043329E-2 0 0
OPDX 0 1 0 2.857142857143E-1 1.960338178077E-1 -3.395405324447E-1 0 1.454441043329E-2 0 0
OPDX 0 1 0 2.857142857143E-1 3.616325828794E-1 -6.263660072194E-1 0 2.327105669326E-2 0 0
OPDX 0 1 0 2.857142857143E-1 4.723631995358E-1 -8.181570612218E-1 0 1.454441043329E-2 0 0
OPDX 0 1 0 2.857142857143E-1 -1.960338178077E-1 -3.395405324447E-1 0 1.454441043329E-2 0 0
OPDX 0 1 0 2.857142857143E-1 -3.616325828794E-1 -6.263660072194E-1 0 2.327105669326E-2 0 0
OPDX 0 1 0 2.857142857143E-1 -4.723631995358E-1 -8.181570612218E-1 0 1.454441043329E-2 0 0
OPDX 0 1 0 2.857142857143E-1 -3.920676356155E-1 3.002115755159E-16 0 1.454441043329E-2 0 0
OPDX 0 1 0 2.857142857143E-1 -7.232651657587E-1 5.538140749296E-16 0 2.327105669326E-2 0 0
OPDX 0 1 0 2.857142857143E-1 -9.447263990717E-1 7.233899841071E-16 0 1.454441043329E-2 0 0
OPDX 0 1 0 2.857142857143E-1 -1.960338178077E-1 3.395405324447E-1 0 1.454441043329E-2 0 0
OPDX 0 1 0 2.857142857143E-1 -3.616325828794E-1 6.263660072194E-1 0 2.327105669326E-2 0 0
OPDX 0 1 0 2.857142857143E-1 -4.723631995358E-1 8.181570612218E-1 0 1.454441043329E-2 0 0
OPDX 0 2 0 2.857142857143E-1 1.960338178077E-1 3.395405324447E-1 0 1.454441043329E-2 0 0
OPDX 0 2 0 2.857142857143E-1 3.616325828794E-1 6.263660072194E-1 0 2.327105669326E-2 0 0
OPDX 0 2 0 2.857142857143E-1 4.723631995358E-1 8.181570612218E-1 0 1.454441043329E-2 0 0
OPDX 0 2 0 2.857142857143E-1 3.920676356155E-1 0 0 1.454441043329E-2 0 0
OPDX 0 2 0 2.857142857143E-1 7.232651657587E-1 0 0 2.327105669326E-2 0 0
OPDX 0 2 0 2.857142857143E-1 9.447263990717E-1 0 0 1.454441043329E-2 0 0
OPDX 0 2 0 2.857142857143E-1 1.960338178077E-1 -3.395405324447E-1 0 1.454441043329E-2 0 0
OPDX 0 2 0 2.857142857143E-1 3.616325828794E-1 -6.263660072194E-1 0 2.327105669326E-2 0 0
OPDX 0 2 0 2.857142857143E-1 4.723631995358E-1 -8.181570612218E-1 0 1.454441043329E-2 0 0
OPDX 0 2 0 2.857142857143E-1 -1.960338178077E-1 -3.395405324447E-1 0 1.454441043329E-2 0 0
OPDX 0 2 0 2.857142857143E-1 -3.616325828794E-1 -6.263660072194E-1 0 2.327105669326E-2 0 0
OPDX 0 2 0 2.857142857143E-1 -4.723631995358E-1 -8.181570612218E-1 0 1.454441043329E-2 0 0
OPDX 0 2 0 2.857142857143E-1 -3.920676356155E-1 3.002115755159E-16 0 1.454441043329E-2 0 0
OPDX 0 2 0 2.857142857143E-1 -7.232651657587E-1 5.538140749296E-16 0 2.327105669326E-2 0 0
OPDX 0 2 0 2.857142857143E-1 -9.447263990717E-1 7.233899841071E-16 0 1.454441043329E-2 0 0
OPDX 0 2 0 2.857142857143E-1 -1.960338178077E-1 3.395405324447E-1 0 1.454441043329E-2 0 0
OPDX 0 2 0 2.857142857143E-1 -3.616325828794E-1 6.263660072194E-1 0 2.327105669326E-2 0 0
OPDX 0 2 0 2.857142857143E-1 -4.723631995358E-1 8.181570612218E-1 0 1.454441043329E-2 0 0
BLNK Operands for field 4.
OPDX 0 1 0 5.714285714286E-1 1.960338178077E-1 3.395405324447E-1 0 1.454441043329E-2 0 0
OPDX 0 1 0 5.714285714286E-1 3.616325828794E-1 6.263660072194E-1 0 2.327105669326E-2 0 0
OPDX 0 1 0 5.714285714286E-1 4.723631995358E-1 8.181570612218E-1 0 1.454441043329E-2 0 0
OPDX 0 1 0 5.714285714286E-1 3.920676356155E-1 0 0 1.454441043329E-2 0 0
OPDX 0 1 0 5.714285714286E-1 7.232651657587E-1 0 0 2.327105669326E-2 0 0
OPDX 0 1 0 5.714285714286E-1 9.447263990717E-1 0 0 1.454441043329E-2 0 0
OPDX 0 1 0 5.714285714286E-1 1.960338178077E-1 -3.395405324447E-1 0 1.454441043329E-2 0 0
OPDX 0 1 0 5.714285714286E-1 3.616325828794E-1 -6.263660072194E-1 0 2.327105669326E-2 0 0
OPDX 0 1 0 5.714285714286E-1 4.723631995358E-1 -8.181570612218E-1 0 1.454441043329E-2 0 0
OPDX 0 1 0 5.714285714286E-1 -1.960338178077E-1 -3.395405324447E-1 0 1.454441043329E-2 0 0
OPDX 0 1 0 5.714285714286E-1 -3.616325828794E-1 -6.263660072194E-1 0 2.327105669326E-2 0 0
OPDX 0 1 0 5.714285714286E-1 -4.723631995358E-1 -8.181570612218E-1 0 1.454441043329E-2 0 0
OPDX 0 1 0 5.714285714286E-1 -3.920676356155E-1 3.002115755159E-16 0 1.454441043329E-2 0 0
OPDX 0 1 0 5.714285714286E-1 -7.232651657587E-1 5.538140749296E-16 0 2.327105669326E-2 0 0
OPDX 0 1 0 5.714285714286E-1 -9.447263990717E-1 7.233899841071E-16 0 1.454441043329E-2 0 0
OPDX 0 1 0 5.714285714286E-1 -1.960338178077E-1 3.395405324447E-1 0 1.454441043329E-2 0 0
OPDX 0 1 0 5.714285714286E-1 -3.616325828794E-1 6.263660072194E-1 0 2.327105669326E-2 0 0
OPDX 0 1 0 5.714285714286E-1 -4.723631995358E-1 8.181570612218E-1 0 1.454441043329E-2 0 0
OPDX 0 2 0 5.714285714286E-1 1.960338178077E-1 3.395405324447E-1 0 1.454441043329E-2 0 0
OPDX 0 2 0 5.714285714286E-1 3.616325828794E-1 6.263660072194E-1 0 2.327105669326E-2 0 0
OPDX 0 2 0 5.714285714286E-1 4.723631995358E-1 8.181570612218E-1 0 1.454441043329E-2 0 0
OPDX 0 2 0 5.714285714286E-1 3.920676356155E-1 0 0 1.454441043329E-2 0 0
OPDX 0 2 0 5.714285714286E-1 7.232651657587E-1 0 0 2.327105669326E-2 0 0
OPDX 0 2 0 5.714285714286E-1 9.447263990717E-1 0 0 1.454441043329E-2 0 0
OPDX 0 2 0 5.714285714286E-1 1.960338178077E-1 -3.395405324447E-1 0 1.454441043329E-2 0 0
OPDX 0 2 0 5.714285714286E-1 3.616325828794E-1 -6.263660072194E-1 0 2.327105669326E-2 0 0
OPDX 0 2 0 5.714285714286E-1 4.723631995358E-1 -8.181570612218E-1 0 1.454441043329E-2 0 0
OPDX 0 2 0 5.714285714286E-1 -1.960338178077E-1 -3.395405324447E-1 0 1.454441043329E-2 0 0
OPDX 0 2 0 5.714285714286E-1 -3.616325828794E-1 -6.263660072194E-1 0 2.327105669326E-2 0 0
OPDX 0 2 0 5.714285714286E-1 -4.723631995358E-1 -8.181570612218E-1 0 1.454441043329E-2 0 0
OPDX 0 2 0 5.714285714286E-1 -3.920676356155E-1 3.002115755159E-16 0 1.454441043329E-2 0 0
OPDX 0 2 0 5.714285714286E-1 -7.232651657587E-1 5.538140749296E-16 0 2.327105669326E-2 0 0
OPDX 0 2 0 5.714285714286E-1 -9.447263990717E-1 7.233899841071E-16 0 1.454441043329E-2 0 0
OPDX 0 2 0 5.714285714286E-1 -1.960338178077E-1 3.395405324447E-1 0 1.454441043329E-2 0 0
OPDX 0 2 0 5.714285714286E-1 -3.616325828794E-1 6.263660072194E-1 0 2.327105669326E-2 0 0
OPDX 0 2 0 5.714285714286E-1 -4.723631995358E-1 8.181570612218E-1 0 1.454441043329E-2 0 0
BLNK Operands for field 5.
OPDX 0 1 0 1 1.960338178077E-1 3.395405324447E-1 0 1.454441043329E-2 0 0
OPDX 0 1 0 1 3.616325828794E-1 6.263660072194E-1 0 2.327105669326E-2 0 0
OPDX 0 1 0 1 4.723631995358E-1 8.181570612218E-1 0 1.454441043329E-2 0 0
OPDX 0 1 0 1 3.920676356155E-1 0 0 1.454441043329E-2 0 0
OPDX 0 1 0 1 7.232651657587E-1 0 0 2.327105669326E-2 0 0
OPDX 0 1 0 1 9.447263990717E-1 0 0 1.454441043329E-2 0 0
OPDX 0 1 0 1 1.960338178077E-1 -3.395405324447E-1 0 1.454441043329E-2 0 0
OPDX 0 1 0 1 3.616325828794E-1 -6.263660072194E-1 0 2.327105669326E-2 0 0
OPDX 0 1 0 1 4.723631995358E-1 -8.181570612218E-1 0 1.454441043329E-2 0 0
OPDX 0 1 0 1 -1.960338178077E-1 -3.395405324447E-1 0 1.454441043329E-2 0 0
OPDX 0 1 0 1 -3.616325828794E-1 -6.263660072194E-1 0 2.327105669326E-2 0 0
OPDX 0 1 0 1 -4.723631995358E-1 -8.181570612218E-1 0 1.454441043329E-2 0 0
OPDX 0 1 0 1 -3.920676356155E-1 3.002115755159E-16 0 1.454441043329E-2 0 0
OPDX 0 1 0 1 -7.232651657587E-1 5.538140749296E-16 0 2.327105669326E-2 0 0
OPDX 0 1 0 1 -9.447263990717E-1 7.233899841071E-16 0 1.454441043329E-2 0 0
OPDX 0 1 0 1 -1.960338178077E-1 3.395405324447E-1 0 1.454441043329E-2 0 0
OPDX 0 1 0 1 -3.616325828794E-1 6.263660072194E-1 0 2.327105669326E-2 0 0
OPDX 0 1 0 1 -4.723631995358E-1 8.181570612218E-1 0 1.454441043329E-2 0 0
OPDX 0 2 0 1 1.960338178077E-1 3.395405324447E-1 0 1.454441043329E-2 0 0
OPDX 0 2 0 1 3.616325828794E-1 6.263660072194E-1 0 2.327105669326E-2 0 0
OPDX 0 2 0 1 4.723631995358E-1 8.181570612218E-1 0 1.454441043329E-2 0 0
OPDX 0 2 0 1 3.920676356155E-1 0 0 1.454441043329E-2 0 0
OPDX 0 2 0 1 7.232651657587E-1 0 0 2.327105669326E-2 0 0
OPDX 0 2 0 1 9.447263990717E-1 0 0 1.454441043329E-2 0 0
OPDX 0 2 0 1 1.960338178077E-1 -3.395405324447E-1 0 1.454441043329E-2 0 0
OPDX 0 2 0 1 3.616325828794E-1 -6.263660072194E-1 0 2.327105669326E-2 0 0
OPDX 0 2 0 1 4.723631995358E-1 -8.181570612218E-1 0 1.454441043329E-2 0 0
OPDX 0 2 0 1 -1.960338178077E-1 -3.395405324447E-1 0 1.454441043329E-2 0 0
OPDX 0 2 0 1 -3.616325828794E-1 -6.263660072194E-1 0 2.327105669326E-2 0 0
OPDX 0 2 0 1 -4.723631995358E-1 -8.181570612218E-1 0 1.454441043329E-2 0 0
OPDX 0 2 0 1 -3.920676356155E-1 3.002115755159E-16 0 1.454441043329E-2 0 0
OPDX 0 2 0 1 -7.232651657587E-1 5.538140749296E-16 0 2.327105669326E-2 0 0
OPDX 0 2 0 1 -9.447263990717E-1 7.233899841071E-16 0 1.454441043329E-2 0 0
OPDX 0 2 0 1 -1.960338178077E-1 3.395405324447E-1 0 1.454441043329E-2 0 0
OPDX 0 2 0 1 -3.616325828794E-1 6.263660072194E-1 0 2.327105669326E-2 0 0
OPDX 0 2 0 1 -4.723631995358E-1 8.181570612218E-1 0 1.454441043329E-2 0 0
TOL TOFF   0   0              0              0   0 0 0 0
MNUM 1 1
XFIE   1   1 0.000000000000E+000 0 0 0 1 1 1.000000000000E+000 0.000000000000E+000 0 "" 0
XFIE   2   1 0.000000000000E+000 0 0 0 1 1 1.000000000000E+000 0.000000000000E+000 0 "" 0
XFIE   3   1 0.000000000000E+000 0 0 0 1 2 2.000000000000E+000 0.000000000000E+000 0 "" 0
XFIE   4   1 0.000000000000E+000 0 0 0 1 2 -1.000000000000E+000 0.000000000000E+000 0 "" 0
XFIE   5   1 0.000000000000E+000 0 0 0 1 3 -1.000000000000E+000 0.000000000000E+000 0 "" 0
YFIE   1   1 0.000000000000E+000 0 0 0 1 1 1.000000000000E+000 0.000000000000E+000 0 "" 0
YFIE   2   1 9.450000000000E-002 0 0 0 1 6 1.000000000000E+000 0.000000000000E+000 0 "" 0
YFIE   3   1 1.890000000000E-001 2 0 0 1 7 2.000000000000E+000 0.000000000000E+000 0 "" 0
YFIE   4   1 3.780000000000E-001 2 0 0 1 7 4.000000000000E+000 0.000000000000E+000 0 "" 0
YFIE   5   1 6.615000000000E-001 2 0 0 1 7 7.000000000000E+000 0.000000000000E+000 0 "" 0
WAVE   1   1 2.400000000000E+002 0 0 0 1 1 1.000000000000E+000 0.000000000000E+000 0 "" 0
WAVE   2   1 4.200000000000E+002 0 0 0 1 11 1.000000000000E+000 -2.250000000000E+001 0 "" 0
MOFF   0   1 "" 0 0 0 1 1 0 0.0 "" 0
