VERS 151019 8931 27544
MODE SEQ
NAME 
PFIL 0 0 0
LANG 0
UNIT MM X W X CM MR CPMM
ENPD 2.0E+3
ENVD 2.0E+1 1 0
GFAC 0 0
GCAT SCHOTT
RAIM 0 2 1 1 0 1 0 0 0
PUSH 0 0 0 0 0 0
SDMA 0 1 0
FTYP 0 0 5 5 0 0 0
ROPD 2
PICB 1
XFLN 3.25E-2 3.25E-2 3.25E-2 3.25E-2 3.25E-2 0 0 0 0 0 0 0
YFLN 0 2.32E-1 4.64E-1 -2.32E-1 -4.64E-1 0 0 0 0 0 0 0
FWGN 1 1 1 1 1 1 1 1 1 1 1 1
VDXN 0 0 0 0 0 0 0 0 0 0 0 0
VDYN 0 0 0 0 0 0 0 0 0 0 0 0
VCXN 0 0 0 0 0 0 0 0 0 0 0 0
VCYN 0 0 0 0 0 0 0 0 0 0 0 0
VANN 0 0 0 0 0 0 0 0 0 0 0 0
WAVM 1 2.4E+2 1
WAVM 2 2.5925E+2 1
WAVM 3 2.785E+2 1
WAVM 4 2.9775E+2 1
WAVM 5 3.17E+2 1
WAVM 6 5.5E-1 1
WAVM 7 5.5E-1 1
WAVM 8 5.5E-1 1
WAVM 9 5.5E-1 1
WAVM 10 5.5E-1 1
WAVM 11 5.5E-1 1
WAVM 12 5.5E-1 1
WAVM 13 5.5E-1 1
WAVM 14 5.5E-1 1
WAVM 15 5.5E-1 1
WAVM 16 5.5E-1 1
WAVM 17 5.5E-1 1
WAVM 18 5.5E-1 1
WAVM 19 5.5E-1 1
WAVM 20 5.5E-1 1
WAVM 21 5.5E-1 1
WAVM 22 5.5E-1 1
WAVM 23 5.5E-1 1
WAVM 24 5.5E-1 1
PWAV 1
POLS 1 0 1 0 0 1 0
GLRS 3 0
GSTD 0 100.000 100.000 100.000 100.000 100.000 100.000 0 1 1 0 0 1 1 1 1 1 1
NSCD 100 500 0 1.0E-3 5 1.0E-6 0 0 0 0 0 0 1000000 0 2
COFN QF "COATING.DAT" "SCATTER_PROFILE.DAT" "ABG_DATA.DAT" "PROFILE.GRD"
COFN COATING.DAT SCATTER_PROFILE.DAT ABG_DATA.DAT PROFILE.GRD
SURF 0
  TYPE STANDARD
  FIMP 

  CURV 0.0 0 0 0 0 ""
  HIDE 0 0 0 0 0 0 0 0 0 0
  MIRR 2 0
  SLAB 6
  DISZ INFINITY
  DIAM 0 0 0 0 1 ""
  POPS 0 0 0 0 0 0 0 0 1 1 1 1 0 0 0 0
SURF 1
  COMM Spider
  TYPE STANDARD
  FIMP 

  CURV 0.0 0 0 0 0 ""
  HIDE 0 0 0 0 0 0 0 0 0 0
  MIRR 2 0
  SLAB 9
  DISZ 0
  DIAM 1.010919174901E+3 0 0 0 1 ""
  POPS 0 0 0 0 0 0 0 0 1 1 1 1 0 0 0 0
  SPID 5.0E+1 3.0 0
SURF 2
  COMM Obscuration
  TYPE STANDARD
  FIMP 

  CURV 0.0 0 0 0 0 ""
  HIDE 0 0 0 0 0 0 0 0 0 0
  MIRR 2 0
  SLAB 3
  DISZ 1.47E+3
  DIAM 1.010919174901E+3 0 0 0 1 ""
  POPS 0 0 0 0 0 0 0 0 1 1 1 1 0 0 0 0
  OBSC 0 2.9E+2 0
SURF 3
  COMM Primary
  STOP
  TYPE STANDARD
  FIMP 

  CURV -2.500000000000000100E-004 0 0 0 0 ""
  HIDE 0 0 0 0 0 0 0 0 0 0
  MIRR 2 0
  SLAB 7
  DISZ -2.E+3
  GLAS MIRROR 0 0 1.5 4.0E+1 0 0 0 0 0 0 
  CONI -1.
  DIAM 1.000000007792E+3 0 0 0 1 ""
  POPS 0 0 0 0 0 0 0 0 1 1 1 1 0 0 0 0
  CLAP 2.5E+2 1.0E+3 0
SURF 4
  COMM Primary Focus
  TYPE STANDARD
  FIMP 

  CURV 0.0 0 0 0 0 ""
  HIDE 0 0 1 0 0 0 0 1 0 0
  MIRR 2 0
  SLAB 1
  DISZ 2.0E+3
  PZUP 3.0 -1. 0 0
  DIAM 1.96367044915E+1 0 0 0 1 ""
  POPS 0 0 0 0 0 0 0 0 1 1 1 1 0 0 0 0
SURF 5
  COMM Mirror Spacing
  TYPE STANDARD
  FIMP 

  CURV 0.0 0 0 0 0 ""
  HIDE 0 0 1 0 0 0 0 1 0 0
  MIRR 2 0
  SLAB 8
  DISZ -1.47E+3
  PZUP 2 -1. 0 0
  DIAM 1.067975780738E+3 0 0 0 1 ""
  POPS 0 0 0 0 0 0 0 0 1 1 1 1 0 0 0 0
SURF 6
  COMM Secondary
  TYPE STANDARD
  FIMP 

  CURV -7.075488385585815200E-004 0 0 0 0 ""
  HIDE 0 0 0 0 0 0 0 0 0 0
  MIRR 2 0
  SLAB 2
  DISZ 1.47E+3
  GLAS MIRROR 0 0 1.5 4.0E+1 0 0 0 0 0 0 
  CONI -2.807833947813
  PZUP 5.0 -1. 0 0
  DIAM 2.821584460939E+2 0 0 0 1 ""
  POPS 0 0 0 0 0 0 0 0 1 1 1 1 0 0 0 0
  CLAP 0 2.9E+2 0
SURF 7
  COMM Primary Hole
  TYPE STANDARD
  FIMP 

  CURV 0.0 0 0 0 0 ""
  HIDE 0 0 1 0 0 0 0 0 0 0
  MIRR 2 0
  SLAB 4
  DISZ 6.463371523962E+2
  DIAM 1.305523750893E+2 0 0 0 1 ""
  POPS 0 0 0 0 0 0 0 0 1 1 1 1 0 0 0 0
SURF 8
  COMM Telescope Focus
  TYPE STANDARD
  FIMP 

  CURV 0.0 0 0 0 0 ""
  HIDE 0 0 0 0 0 0 0 0 0 0
  MIRR 2 0
  SLAB 10
  DISZ 0
  DIAM 6.605236326124E+1 0 0 0 1 ""
  POPS 0 0 0 0 0 0 0 0 1 1 1 1 0 0 0 0
SURF 9
  COMM Cryostat Window
  TYPE STANDARD
  FIMP 

  CURV 0.0 0 0 0 0 ""
  HIDE 0 0 0 0 0 0 0 0 0 0
  MIRR 2 0
  SLAB 11
  DISZ 8.0E+1
  DIAM 6.605236326124E+1 0 0 0 1 ""
  POPS 0 0 0 0 0 0 0 0 1 1 1 1 0 0 0 0
SURF 10
  TYPE COORDBRK
  FIMP 

  CURV 0.0 0 0.0 0.0 0
  HIDE 0 0 0 0 0 1 0 0 0 0
  MIRR 2 0
  SLAB 15
  PARM 1 0
  PARM 2 0
  PARM 3 0
  PARM 4 0
  PARM 5 0
  PARM 6 0
  DISZ -8.E+1
  PZUP 9.0 -1. 0 0
  DIAM 0 0 0 0 1 ""
  POPS 0 0 0 0 0 0 0 0 1 1 1 1 0 0 0 0
SURF 11
  TYPE COORDBRK
  FIMP 

  CURV 0.0 0 0.0 0.0 0
  HIDE 0 0 0 0 0 1 0 0 0 0
  MIRR 2 0
  SLAB 21
  PARM 1 0
  PARM 2 0
  PARM 3 0
  PARM 4 0
  PARM 5 0
  PARM 6 0
  DISZ 4.19E+2
  DIAM 0 0 0 0 1 ""
  POPS 0 0 0 0 0 0 0 0 1 1 1 1 0 0 0 0
SURF 12
  COMM Cryostat Rect.
  TYPE STANDARD
  FIMP 

  CURV 0.0 0 0 0 0 ""
  HIDE 0 0 0 0 0 1 0 1 0 0
  MIRR 2 0
  SLAB 14
  DISZ 4.19E+2
  DIAM 0 0 0 0 1 ""
  POPS 0 0 0 0 0 0 0 0 1 1 1 1 0 0 0 0
  SQAP 4.19E+2 3.345E+2 0
  OBDC 0.000000000000E+000 1.798500000000E+002
SURF 13
  TYPE STANDARD
  FIMP 

  CURV 0.0 0 0 0 0 ""
  HIDE 0 0 0 0 0 1 0 1 0 0
  MIRR 2 0
  SLAB 76
  DISZ 0
  DIAM 0 0 0 0 1 ""
  POPS 0 0 0 0 0 0 0 0 1 1 1 1 0 0 0 0
  SQAP 4.19E+2 3.345E+2 12
  OBDC 0.000000000000E+000 1.798500000000E+002
SURF 14
  TYPE COORDBRK
  FIMP 

  CURV 0.0 0 0.0 0.0 0
  HIDE 0 0 0 0 0 1 0 0 0 0
  MIRR 2 0
  SLAB 12
  SCBD 3 3 10
  PARM 1 0
  PARM 2 0
  PARM 3 0
  PARM 4 0
  PARM 5 0
  PARM 6 1
  DISZ -7.58E+2
  DIAM 0 0 0 0 1 ""
  POPS 0 0 0 0 0 0 0 0 1 1 1 1 0 0 0 0
SURF 15
  COMM Offner Input Fold Tilt
  TYPE COORDBRK
  FIMP 

  CURV 0.0 0 0.0 0.0 0
  HIDE 0 0 0 0 0 0 0 0 0 0
  MIRR 2 0
  SLAB 34
  PARM 1 0
  PARM 2 0
  PARM 3 0
  PARM 4 -4.5E+1
  PARM 5 0
  PARM 6 0
  DISZ 0
  DIAM 0 0 0 0 1 ""
  POPS 0 0 0 0 0 0 0 0 1 1 1 1 0 0 0 0
SURF 16
  COMM Offner Input Fold
  TYPE STANDARD
  FIMP 

  CURV 0.0 0 0 0 0 ""
  HIDE 0 0 0 0 0 0 0 0 0 0
  MIRR 2 1.5E+1
  SLAB 30
  DISZ 0
  GLAS MIRROR 0 0 1.5 4.0E+1 0 0 0 0 0 0 
  DIAM 7.949130946016E+1 0 0 0 1 ""
  POPS 0 0 0 0 0 0 0 0 1 1 1 1 0 0 0 0
  SQAP 2.5E+1 8.1E+1 0
  OBDC 2.000000000000E+000 0.000000000000E+000
SURF 17
  COMM Offner Input Fold De-Tilt
  TYPE COORDBRK
  FIMP 

  CURV 0.0 0 0.0 0.0 0
  HIDE 0 0 0 0 0 0 0 0 0 0
  MIRR 2 0
  SLAB 29
  PARM 1 0
  PARM 2 0
  PARM 3 0
  PARM 4 -4.5E+1
  PPAR 4 15 1.000000000000E+000 0.000000000000E+000 0
  PARM 5 0
  PARM 6 0
  DISZ 0
  DIAM 0 0 0 0 1 ""
  POPS 0 0 0 0 0 0 0 0 1 1 1 1 0 0 0 0
SURF 18
  COMM Offner Offset
  TYPE COORDBRK
  FIMP 

  CURV 0.0 0 0.0 0.0 0
  HIDE 0 0 0 0 0 0 0 0 0 0
  MIRR 2 0
  SLAB 18
  PARM 1 4.0E+1
  PARM 2 0
  PARM 3 0
  PARM 4 0
  PARM 5 0
  PARM 6 0
  DISZ -1.650002925606E+2
  DIAM 0 0 0 0 1 ""
  POPS 0 0 0 0 0 0 0 0 1 1 1 1 0 0 0 0
SURF 19
  COMM Offner M1
  TYPE STANDARD
  FIMP 

  CURV 3.708083731565854400E-003 0 0 0 0 ""
  HIDE 0 0 0 0 0 0 0 0 0 0
  MIRR 2 2.5E+1
  SLAB 16
  DISZ 1.348405365671E+2
  GLAS MIRROR 0 0 1.5 4.0E+1 0 0 0 0 0 0 
  CONI -1.348280847375E-2
  PZUP 1.9E+1 5.0E-1 0 1
  DIAM 1.075330471883E+2 0 0 0 1 ""
  POPS 0 0 0 0 0 0 0 0 1 1 1 1 0 0 0 0
  SQAP 4.0E+1 1.03E+2 0
  OBDC -4.000000000000E+001 0.000000000000E+000
SURF 20
  COMM Offner M2 (Lyot)
  TYPE EVENASPH
  FIMP 

  CURV 7.416167463131708700E-003 4 1.9E+1 2 1 ""
  HIDE 0 0 0 0 0 0 0 0 0 0
  MIRR 2 1.5E+1
  SLAB 17
  PARM 1 -7.786353013193E-4
  PARM 2 3.295241096946E-6
  PARM 3 -2.647842345003E-9
  PARM 4 0
  PARM 5 0
  PARM 6 0
  PARM 7 0
  PARM 8 0
  DISZ -1.348405365671E+2
  GLAS MIRROR 0 0 1.5 4.0E+1 0 0 0 0 0 0 
  CONI -7.891376917851E+1
  PZUP 1.9E+1 -1. 0 0
  DIAM 1.880168401633E+1 0 0 0 1 ""
  POPS 0 0 0 0 0 0 0 0 1 1 1 1 0 0 0 0
  CLAP 5.5 1.65E+1 0
  OBDC 1.000000000000E+000 0.000000000000E+000
SURF 21
  COMM Offner M3
  TYPE STANDARD
  FIMP 

  CURV 3.708083731565854400E-003 4 1.9E+1 1 1 ""
  HIDE 0 0 0 0 0 0 0 0 0 0
  MIRR 2 2.5E+1
  SLAB 19
  DISZ 1.650002925606E+2
  GLAS MIRROR 0 0 1.5 4.0E+1 0 0 0 0 0 0 
  CONI -1.348280847375E-2
  TOLE 1.7E+1 0
  DIAM 1.080497056737E+2 0 0 0 1 ""
  PKUP 19 1.000000000000E+000 0
  POPS 0 0 0 0 0 0 0 0 1 1 1 1 0 0 0 0
  SQAP 3.75E+1 1.01E+2 0
  OBDC 4.300000000000E+001 0.000000000000E+000
SURF 22
  COMM Inverse Offner Offset
  TYPE COORDBRK
  FIMP 

  CURV 0.0 0 0.0 0.0 0
  HIDE 0 0 0 0 0 0 0 0 0 0
  MIRR 2 0
  SLAB 20
  PARM 1 4.0E+1
  PPAR 1 18 1.000000000000E+000 0.000000000000E+000 0
  PARM 2 0
  PARM 3 0
  PARM 4 0
  PARM 5 0
  PARM 6 0
  DISZ 0
  DIAM 0 0 0 0 1 ""
  POPS 0 0 0 0 0 0 0 0 1 1 1 1 0 0 0 0
SURF 23
  COMM Offner Out Fold Tilt
  TYPE COORDBRK
  FIMP 

  CURV 0.0 0 0.0 0.0 0
  HIDE 0 0 0 0 0 0 0 0 0 0
  MIRR 2 0
  SLAB 33
  PARM 1 0
  PARM 2 0
  PARM 3 0
  PARM 4 -4.5E+1
  PARM 5 0
  PARM 6 0
  DISZ 0
  DIAM 0 0 0 0 1 ""
  POPS 0 0 0 0 0 0 0 0 1 1 1 1 0 0 0 0
SURF 24
  COMM Offner Out Fold
  TYPE STANDARD
  FIMP 

  CURV 0.0 0 0 0 0 ""
  HIDE 0 0 0 0 0 0 0 0 0 0
  MIRR 2 1.5E+1
  SLAB 32
  DISZ 0
  GLAS MIRROR 0 0 1.5 4.0E+1 0 0 0 0 0 0 
  DIAM 7.756546384702E+1 0 0 0 1 ""
  POPS 0 0 0 0 0 0 0 0 1 1 1 1 0 0 0 0
  SQAP 2.25E+1 8.0E+1 0
SURF 25
  COMM Offner Out Fold De-Tilt
  TYPE COORDBRK
  FIMP 

  CURV 0.0 0 0.0 0.0 0
  HIDE 0 0 0 0 0 0 0 0 0 0
  MIRR 2 0
  SLAB 31
  PARM 1 0
  PARM 2 0
  PARM 3 0
  PPAR 3 23 1.000000000000E+000 0.000000000000E+000 0
  PARM 4 -4.5E+1
  PPAR 4 23 1.000000000000E+000 0.000000000000E+000 0
  PARM 5 0
  PARM 6 0
  DISZ -8.E+1
  DIAM 0 0 0 0 1 ""
  POPS 0 0 0 0 0 0 0 0 1 1 1 1 0 0 0 0
SURF 26
  COMM Slit Centering
  TYPE COORDBRK
  FIMP 

  CURV 0.0 0 0.0 0.0 0
  HIDE 0 0 0 0 0 0 0 0 0 0
  MIRR 2 0
  SLAB 13
  PARM 1 -4.552384765447
  PPAR 1 -1 1 0
  PARM 2 0
  PARM 3 0
  PARM 4 0
  PARM 5 0
  PARM 6 0
  DISZ 0
  DIAM 0 0 0 0 1 ""
  POPS 0 0 0 0 0 0 0 0 1 1 1 1 0 0 0 0
SURF 27
  COMM MAP Slit Decenter
  TYPE COORDBRK
  FIMP 

  CURV 0.0 0 0.0 0.0 0
  HIDE 0 0 0 0 0 1 0 0 0 0
  MIRR 2 0
  SLAB 68
  PARM 1 0
  PARM 2 0
  PARM 3 0
  PARM 4 0
  PARM 5 0
  PARM 6 0
  DISZ 0
  DIAM 0 0 0 0 1 ""
  POPS 0 0 0 0 0 0 0 0 1 1 1 1 0 0 0 0
SURF 28
  COMM MAP Pickoff Tilt
  TYPE COORDBRK
  FIMP 

  CURV 0.0 0 0.0 0.0 0
  HIDE 0 0 0 0 0 1 0 0 0 0
  MIRR 2 0
  SLAB 67
  PARM 1 0
  PARM 2 0
  PARM 3 5.0E+1
  PARM 4 0
  PARM 5 0
  PARM 6 0
  DISZ 0
  DIAM 0 0 0 0 1 ""
  POPS 0 0 0 0 0 0 0 0 1 1 1 1 0 0 0 0
SURF 29
  COMM MAP Pickoff
  TYPE STANDARD
  FIMP 

  CURV 0.0 0 0 0 0 ""
  HIDE 0 0 0 0 0 1 0 0 0 0
  MIRR 2 1.5E+1
  SLAB 66
  DISZ 0
  GLAS MIRROR 0 0 1.5 4.0E+1 0 0 0 0 0 0 
  DIAM 0 0 0 0 1 ""
  POPS 0 0 0 0 0 0 0 0 1 1 1 1 0 0 0 0
SURF 30
  COMM MAP Pickoff De-Tilt
  TYPE COORDBRK
  FIMP 

  CURV 0.0 0 0.0 0.0 0
  HIDE 0 0 0 0 0 1 0 0 0 0
  MIRR 2 0
  SLAB 65
  PARM 1 0
  PARM 2 0
  PARM 3 5.0E+1
  PPAR 3 28 1.000000000000E+000 0.000000000000E+000 0
  PARM 4 0
  PARM 5 0
  PARM 6 0
  DISZ -2.2E+2
  DIAM 0 0 0 0 1 ""
  POPS 0 0 0 0 0 0 0 0 1 1 1 1 0 0 0 0
SURF 31
  COMM MAP Camera Tilt
  TYPE COORDBRK
  FIMP 

  CURV 0.0 0 0.0 0.0 0
  HIDE 0 0 1 0 0 1 0 1 0 0
  MIRR 2 0
  SLAB 62
  PARM 1 0
  PARM 2 5.5E+1
  PARM 3 0
  PARM 4 0
  PARM 5 0
  PARM 6 0
  DISZ 0
  DIAM 0 0 0 0 1 ""
  POPS 0 0 0 0 0 0 0 0 1 1 1 1 0 0 0 0
SURF 32
  COMM MAP Camera
  TYPE STANDARD
  FIMP 

  CURV 3.333333333333333500E-003 0 0 0 0 ""
  HIDE 0 0 0 0 0 1 0 0 0 0
  MIRR 2 2.5E+1
  SLAB 78
  DISZ 0
  GLAS MIRROR 0 0 1.5 4.0E+1 0 0 0 0 0 0 
  DIAM 0 0 0 0 1 ""
  POPS 0 0 0 0 0 0 0 0 1 1 1 1 0 0 0 0
SURF 33
  COMM MAP Camera De-Tilt
  TYPE COORDBRK
  FIMP 

  CURV 0.0 0 0.0 0.0 0
  HIDE 0 0 0 0 0 1 0 0 0 0
  MIRR 2 0
  SLAB 77
  PARM 1 0
  PARM 2 0
  PARM 3 0
  PARM 4 0
  PARM 5 0
  PARM 6 0
  DISZ 0
  DIAM 0 0 0 0 1 ""
  POPS 0 0 0 0 0 0 0 0 1 1 1 1 0 0 0 0
SURF 34
  COMM Cryostat Tilt
  TYPE COORDBRK
  FIMP 

  CURV 0.0 0 0.0 0.0 0
  HIDE 0 0 0 0 0 1 0 0 0 0
  MIRR 2 0
  SLAB 61
  SCBD 3 3 9
  PARM 1 5.749990317766E+1
  PARM 2 -2.07107055891E+2
  PARM 3 -1.E+2
  PARM 4 0
  PARM 5 0
  PARM 6 1
  DISZ -1.723670255024E+2
  DIAM 0 0 0 0 1 ""
  POPS 0 0 0 0 0 0 0 0 1 1 1 1 0 0 0 0
SURF 35
  TYPE COORDBRK
  FIMP 

  CURV 0.0 0 0.0 0.0 0
  HIDE 0 0 0 0 0 1 0 0 0 0
  MIRR 2 0
  SLAB 63
  PARM 1 0
  PARM 2 4.19E+2
  PARM 3 9.0E+1
  PARM 4 0
  PARM 5 0
  PARM 6 1
  DISZ 1.5465E+2
  DIAM 0 0 0 0 1 ""
  POPS 0 0 0 0 0 0 0 0 1 1 1 1 0 0 0 0
SURF 36
  COMM 4K Plate
  TYPE STANDARD
  FIMP 

  CURV 0.0 0 0 0 0 ""
  HIDE 0 0 0 0 0 1 0 1 0 0
  MIRR 2 0
  SLAB 75
  DISZ -6.69E+2
  DIAM 4.19E+2 1 0 0 1 ""
  POPS 0 0 0 0 0 0 0 0 1 1 1 1 0 0 0 0
SURF 37
  COMM Cryostat
  TYPE STANDARD
  FIMP 

  CURV 0.0 0 0 0 0 ""
  HIDE 0 0 0 0 0 1 0 1 0 0
  MIRR 2 0
  SLAB 60
  DISZ 0
  DIAM 4.19E+2 1 0 0 1 ""
  POPS 0 0 0 0 0 0 0 0 1 1 1 1 0 0 0 0
SURF 38
  TYPE COORDBRK
  FIMP 

  CURV 0.0 0 0.0 0.0 0
  HIDE 0 0 0 0 0 1 0 0 0 0
  MIRR 2 0
  SLAB 64
  PARM 1 0
  PARM 2 0
  PARM 3 -9.E+1
  PPAR 3 35 -1.000000000000E+000 0.000000000000E+000 0
  PARM 4 0
  PARM 5 0
  PARM 6 0
  DISZ 0
  DIAM 0 0 0 0 1 ""
  POPS 0 0 0 0 0 0 0 0 1 1 1 1 0 0 0 0
SURF 39
  COMM Cryostat De-Tilt
  TYPE COORDBRK
  FIMP 

  CURV 0.0 0 0.0 0.0 0
  HIDE 0 0 0 0 0 1 0 0 0 0
  MIRR 2 0
  SLAB 59
  SCBD 3 3 31
  PARM 1 -5.749990317766E+1
  PARM 2 -2.445338880882E+2
  PARM 3 1.0E+2
  PARM 4 0
  PARM 5 0
  PARM 6 1
  DISZ 3.454025999909E+2
  DIAM 0 0 0 0 1 ""
  POPS 0 0 0 0 0 0 0 0 1 1 1 1 0 0 0 0
SURF 40
  COMM MAP Image Centering
  TYPE COORDBRK
  FIMP 

  CURV 0.0 0 0.0 0.0 0
  HIDE 0 0 0 0 0 1 0 0 0 0
  MIRR 2 0
  SLAB 79
  PARM 1 -4.669585208225
  PPAR 1 -1 1 2
  PARM 2 -1.978937591951
  PPAR 2 -1 1 2
  PARM 3 -2.112843287299E+1
  PPAR 3 -1 1 2
  PARM 4 5.033228965395E-1
  PPAR 4 -1 1 2
  PARM 5 0
  PARM 6 0
  DISZ 3.0E+2
  DIAM 0 0 0 0 1 ""
  POPS 0 0 0 0 0 0 0 0 1 1 1 1 0 0 0 0
SURF 41
  COMM Slit
  TYPE STANDARD
  FIMP 

  CURV 0.0 0 0 0 0 ""
  HIDE 0 0 0 0 0 0 0 0 0 0
  MIRR 2 0
  SLAB 25
  DISZ -5.
  DIAM 6.559370194854E+1 0 0 0 1 ""
  POPS 0 0 0 0 0 0 0 0 1 1 1 1 0 0 0 0
  SQAP 2 6.8E+1 0
SURF 42
  COMM LW Slit Mirror Tilt
  TYPE COORDBRK
  FIMP 

  CURV 0.0 0 0.0 0.0 0
  HIDE 0 0 0 0 0 1 0 0 0 0
  MIRR 2 0
  SLAB 24
  PARM 1 0
  PARM 2 0
  PARM 3 0
  PARM 4 4.5E+1
  PARM 5 0
  PARM 6 0
  DISZ 0
  DIAM 0 0 0 0 1 ""
  POPS 0 0 0 0 0 0 0 0 1 1 1 1 0 0 0 0
SURF 43
  COMM LW Slit Mirror
  TYPE STANDARD
  FIMP 

  CURV 0.0 0 0 0 0 ""
  HIDE 0 0 0 0 0 1 0 0 0 0
  MIRR 2 2.5
  SLAB 23
  DISZ 0
  GLAS MIRROR 0 0 1.5 4.0E+1 0 0 0 0 0 0 
  DIAM 0 0 0 0 1 ""
  POPS 0 0 0 0 0 0 0 0 1 1 1 1 0 0 0 0
SURF 44
  COMM LW Slit Mirror De-Tilt
  TYPE COORDBRK
  FIMP 

  CURV 0.0 0 0.0 0.0 0
  HIDE 0 0 0 0 0 1 0 0 0 0
  MIRR 2 0
  SLAB 22
  PARM 1 0
  PARM 2 0
  PARM 3 0
  PARM 4 4.5E+1
  PPAR 4 42 1.000000000000E+000 0.000000000000E+000 0
  PARM 5 0
  PARM 6 0
  DISZ 5.0
  PZUP 4.1E+1 -1. 0 0
  DIAM 0 0 0 0 1 ""
  POPS 0 0 0 0 0 0 0 0 1 1 1 1 0 0 0 0
SURF 45
  COMM Back To LW Slit
  TYPE COORDBRK
  FIMP 

  CURV 0.0 0 0.0 0.0 0
  HIDE 0 0 0 0 0 1 0 0 0 0
  MIRR 2 0
  SLAB 26
  PARM 1 0
  PARM 2 0
  PARM 3 0
  PARM 4 0
  PARM 5 0
  PARM 6 0
  DISZ 1.5E+2
  DIAM 0 0 0 0 1 ""
  POPS 0 0 0 0 0 0 0 0 1 1 1 1 0 0 0 0
SURF 46
  COMM SW Slit Mirror Tilt
  TYPE COORDBRK
  FIMP 

  CURV 0.0 0 0.0 0.0 0
  HIDE 0 0 0 0 0 0 0 0 0 0
  MIRR 2 0
  SLAB 36
  PARM 1 0
  PARM 2 0
  PARM 3 0
  PARM 4 -4.5E+1
  PARM 5 0
  PARM 6 0
  DISZ 0
  DIAM 0 0 0 0 1 ""
  POPS 0 0 0 0 0 0 0 0 1 1 1 1 0 0 0 0
SURF 47
  COMM SW Slit Mirror
  TYPE STANDARD
  FIMP 

  CURV 0.0 0 0 0 0 ""
  HIDE 0 0 0 0 0 0 0 0 0 0
  MIRR 2 2.5
  SLAB 39
  DISZ 0
  GLAS MIRROR 0 0 1.5 4.0E+1 0 0 0 0 0 0 
  DIAM 6.61883061891E+1 0 0 0 1 ""
  POPS 0 0 0 0 0 0 0 0 1 1 1 1 0 0 0 0
  SQAP 3.5 6.8E+1 0
  OBDC -5.000000000000E-001 0.000000000000E+000
SURF 48
  COMM SW Slit Mirror De-Tilt
  TYPE COORDBRK
  FIMP 

  CURV 0.0 0 0.0 0.0 0
  HIDE 0 0 0 0 0 0 0 0 0 0
  MIRR 2 0
  SLAB 38
  PARM 1 0
  PARM 2 0
  PARM 3 0
  PARM 4 -4.5E+1
  PPAR 4 46 1.000000000000E+000 0.000000000000E+000 0
  PARM 5 0
  PARM 6 0
  DISZ 5.0
  PZUP 4.1E+1 -1. 0 0
  DIAM 0 0 0 0 1 ""
  POPS 0 0 0 0 0 0 0 0 1 1 1 1 0 0 0 0
SURF 49
  COMM Back To SW Slit
  TYPE COORDBRK
  FIMP 

  CURV 0.0 0 0.0 0.0 0
  HIDE 0 0 0 0 0 0 0 0 0 0
  MIRR 2 0
  SLAB 37
  PARM 1 0
  PARM 2 0
  PARM 3 0
  PARM 4 0
  PARM 5 0
  PARM 6 0
  DISZ 1.5E+2
  DIAM 0 0 0 0 1 ""
  POPS 0 0 0 0 0 0 0 0 1 1 1 1 0 0 0 0
SURF 50
  COMM LW Collimator Fold Tilt
  TYPE COORDBRK
  FIMP 

  CURV 0.0 0 0.0 0.0 0
  HIDE 0 0 0 0 0 1 0 0 0 0
  MIRR 2 0
  SLAB 35
  PARM 1 0
  PARM 2 0
  PARM 3 4.5E+1
  PARM 4 0
  PARM 5 0
  PARM 6 0
  DISZ 0
  DIAM 0 0 0 0 1 ""
  POPS 0 0 0 0 0 0 0 0 1 1 1 1 0 0 0 0
SURF 51
  COMM LW Collimator Fold
  TYPE SZERNSAG
  FIMP 

  CURV 0.0 0 0 0 0 ""
  HIDE 0 0 0 0 0 1 0 0 0 0
  MIRR 2 2.5E+1
  SLAB 28
  PARM 0 1
  PARM 1 0
  PARM 2 0
  PARM 3 0
  PARM 4 0
  PARM 5 0
  PARM 6 0
  PARM 7 0
  PARM 8 0
  PARM 9 0
  PARM 10 0
  XDAT 1 2.100000000000E+001 0 0 1.000000000000E+000 0.000000000000E+000 0 ""
  XDAT 2 2.000000000000E+002 0 0 1.000000000000E+000 0.000000000000E+000 0 ""
  XDAT 3 0.000000000000E+000 0 0 1.000000000000E+000 0.000000000000E+000 0 ""
  XDAT 4 0.000000000000E+000 0 0 1.000000000000E+000 0.000000000000E+000 0 ""
  XDAT 5 0.000000000000E+000 0 0 1.000000000000E+000 0.000000000000E+000 0 ""
  XDAT 6 1.377433717895E-001 1 0 1.000000000000E+000 0.000000000000E+000 0 ""
  XDAT 7 1.444895117624E-001 1 0 1.000000000000E+000 0.000000000000E+000 0 ""
  XDAT 8 1.589338768147E+000 1 0 1.000000000000E+000 0.000000000000E+000 0 ""
  XDAT 9 -1.703281921518E-002 1 0 1.000000000000E+000 0.000000000000E+000 0 ""
  XDAT 10 -9.608667312220E-001 1 0 1.000000000000E+000 0.000000000000E+000 0 ""
  XDAT 11 3.076653375758E-003 1 0 1.000000000000E+000 0.000000000000E+000 0 ""
  XDAT 12 1.166356276650E+000 1 0 1.000000000000E+000 0.000000000000E+000 0 ""
  XDAT 13 -1.282913488111E-001 1 0 1.000000000000E+000 0.000000000000E+000 0 ""
  XDAT 14 9.290779239057E-002 1 0 1.000000000000E+000 0.000000000000E+000 0 ""
  XDAT 15 7.821089479705E-001 1 0 1.000000000000E+000 0.000000000000E+000 0 ""
  XDAT 16 1.008444950993E+000 1 0 1.000000000000E+000 0.000000000000E+000 0 ""
  XDAT 17 -1.883108342506E+000 1 0 1.000000000000E+000 0.000000000000E+000 0 ""
  XDAT 18 1.450073608767E-001 1 0 1.000000000000E+000 0.000000000000E+000 0 ""
  XDAT 19 7.149175167642E-003 1 0 1.000000000000E+000 0.000000000000E+000 0 ""
  XDAT 20 -2.052656837647E-001 1 0 1.000000000000E+000 0.000000000000E+000 0 ""
  XDAT 21 7.726769240126E-002 1 0 1.000000000000E+000 0.000000000000E+000 0 ""
  XDAT 22 -2.810546513881E+000 1 0 1.000000000000E+000 0.000000000000E+000 0 ""
  XDAT 23 -3.934406045744E-001 1 0 1.000000000000E+000 0.000000000000E+000 0 ""
  DISZ 0
  GLAS MIRROR 0 0 1.5 4.0E+1 0 0 0 0 0 0 
  DIAM 0 0 0 0 1 ""
  POPS 0 0 0 0 0 0 0 0 1 1 1 1 0 0 0 0
SURF 52
  COMM LW Collimator Fold De-Tilt
  TYPE COORDBRK
  FIMP 

  CURV 0.0 0 0.0 0.0 0
  HIDE 0 0 0 0 0 1 0 0 0 0
  MIRR 2 0
  SLAB 27
  PARM 1 0
  PARM 2 0
  PARM 3 4.5E+1
  PPAR 3 50 1.000000000000E+000 0.000000000000E+000 0
  PARM 4 0
  PARM 5 0
  PARM 6 0
  DISZ -4.53231E+2
  DIAM 0 0 0 0 1 ""
  POPS 0 0 0 0 0 0 0 0 1 1 1 1 0 0 0 0
SURF 53
  COMM SW Collimator Fold Tilt
  TYPE COORDBRK
  FIMP 

  CURV 0.0 0 0.0 0.0 0
  HIDE 0 0 0 0 0 0 0 0 0 0
  MIRR 2 0
  SLAB 42
  PARM 1 0
  PARM 2 0
  PARM 3 4.5E+1
  PARM 4 0
  PARM 5 0
  PARM 6 0
  DISZ 0
  DIAM 0 0 0 0 1 ""
  POPS 0 0 0 0 0 0 0 0 1 1 1 1 0 0 0 0
SURF 54
  COMM SW Collimator Fold
  TYPE SZERNSAG
  FIMP 

  CURV 0.0 0 0 0 0 ""
  HIDE 0 0 0 0 0 0 0 0 0 0
  MIRR 2 2.5E+1
  SLAB 41
  PARM 0 1
  PARM 1 0
  PARM 2 0
  PARM 3 0
  PARM 4 0
  PARM 5 0
  PARM 6 0
  PARM 7 0
  PARM 8 0
  PARM 9 0
  PARM 10 0
  XDAT 1 2.100000000000E+001 0 0 1.000000000000E+000 0.000000000000E+000 0 ""
  XDAT 2 2.000000000000E+002 0 0 1.000000000000E+000 0.000000000000E+000 0 ""
  XDAT 3 0.000000000000E+000 0 0 1.000000000000E+000 0.000000000000E+000 0 ""
  XDAT 4 0.000000000000E+000 0 0 1.000000000000E+000 0.000000000000E+000 0 ""
  XDAT 5 0.000000000000E+000 0 0 1.000000000000E+000 0.000000000000E+000 0 ""
  XDAT 6 -1.084595559569E+001 0 0 1.000000000000E+000 0.000000000000E+000 0 ""
  XDAT 7 -1.192450831228E-001 0 0 1.000000000000E+000 0.000000000000E+000 0 ""
  XDAT 8 -1.153722798423E+001 0 0 1.000000000000E+000 0.000000000000E+000 0 ""
  XDAT 9 3.622260960488E+000 0 0 1.000000000000E+000 0.000000000000E+000 0 ""
  XDAT 10 -5.705863564741E-001 0 0 1.000000000000E+000 0.000000000000E+000 0 ""
  XDAT 11 1.001957994976E+001 0 0 1.000000000000E+000 0.000000000000E+000 0 ""
  XDAT 12 -4.623773916480E+000 0 0 1.000000000000E+000 0.000000000000E+000 0 ""
  XDAT 13 -3.100416417374E+000 0 0 1.000000000000E+000 0.000000000000E+000 0 ""
  XDAT 14 -3.812939248299E+000 0 0 1.000000000000E+000 0.000000000000E+000 0 ""
  XDAT 15 9.849972192422E-001 0 0 1.000000000000E+000 0.000000000000E+000 0 ""
  XDAT 16 -1.365514353474E+000 0 0 1.000000000000E+000 0.000000000000E+000 0 ""
  XDAT 17 4.907782766876E+000 0 0 1.000000000000E+000 0.000000000000E+000 0 ""
  XDAT 18 1.075934788663E-001 0 0 1.000000000000E+000 0.000000000000E+000 0 ""
  XDAT 19 8.763446216366E-001 0 0 1.000000000000E+000 0.000000000000E+000 0 ""
  XDAT 20 4.616829360255E-001 0 0 1.000000000000E+000 0.000000000000E+000 0 ""
  XDAT 21 2.185469853103E+000 0 0 1.000000000000E+000 0.000000000000E+000 0 ""
  XDAT 22 2.297134619065E+000 0 0 1.000000000000E+000 0.000000000000E+000 0 ""
  XDAT 23 1.961407644998E+000 0 0 1.000000000000E+000 0.000000000000E+000 0 ""
  DISZ 0
  GLAS MIRROR 0 0 1.5 4.0E+1 0 0 0 0 0 0 
  DIAM 1.339491022413E+2 0 0 0 1 ""
  POPS 0 0 0 0 0 0 0 0 1 1 1 1 0 0 0 0
  SQAP 3.3E+1 1.15E+2 0
  OBDC -3.000000000000E+000 1.900000000000E+001
SURF 55
  COMM SW Collimator Fold De-Tilt
  TYPE COORDBRK
  FIMP 

  CURV 0.0 0 0.0 0.0 0
  HIDE 0 0 0 0 0 0 0 0 0 0
  MIRR 2 0
  SLAB 40
  PARM 1 0
  PARM 2 0
  PARM 3 4.5E+1
  PPAR 3 53 1.000000000000E+000 0.000000000000E+000 0
  PARM 4 0
  PPAR 4 53 1.000000000000E+000 0.000000000000E+000 0
  PARM 5 0
  PARM 6 0
  DISZ -3.06392E+2
  DIAM 0 0 0 0 1 ""
  POPS 0 0 0 0 0 0 0 0 1 1 1 1 0 0 0 0
SURF 56
  COMM LW Collimator Tilt
  TYPE COORDBRK
  FIMP 

  CURV 0.0 0 0.0 0.0 0
  HIDE 0 0 0 0 0 1 0 0 0 0
  MIRR 2 0
  SLAB 45
  PARM 1 1.45E+2
  PARM 2 0
  PARM 3 0
  PARM 4 2.25
  PARM 5 0
  PARM 6 0
  DISZ 0
  DIAM 0 0 0 0 1 ""
  POPS 0 0 0 0 0 0 0 0 1 1 1 1 0 0 0 0
SURF 57
  COMM LW Collimator
  TYPE SZERNSAG
  FIMP 

  CURV 8.288691820636024600E-004 0 0 0 0 ""
  HIDE 0 0 0 0 0 1 0 0 0 0
  MIRR 2 2.5E+1
  SLAB 44
  PARM 0 1
  PARM 1 0
  PARM 2 1.5749739128E-11
  VPAR 2
  PARM 3 5.043386281749E-17
  VPAR 3
  PARM 4 -2.448892988432E-22
  VPAR 4
  PARM 5 0
  PARM 6 0
  PARM 7 0
  PARM 8 0
  PARM 9 0
  PARM 10 0
  XDAT 1 2.100000000000E+001 0 0 1.000000000000E+000 0.000000000000E+000 0 ""
  XDAT 2 4.000000000000E+002 0 0 1.000000000000E+000 0.000000000000E+000 0 ""
  XDAT 3 0.000000000000E+000 0 0 1.000000000000E+000 0.000000000000E+000 0 ""
  XDAT 4 0.000000000000E+000 0 0 1.000000000000E+000 0.000000000000E+000 0 ""
  XDAT 5 0.000000000000E+000 0 0 1.000000000000E+000 0.000000000000E+000 0 ""
  XDAT 6 -2.934206302682E-001 1 0 1.000000000000E+000 0.000000000000E+000 0 ""
  XDAT 7 -4.826790747656E-001 1 0 1.000000000000E+000 0.000000000000E+000 0 ""
  XDAT 8 3.308040247975E-001 1 0 1.000000000000E+000 0.000000000000E+000 0 ""
  XDAT 9 9.773068935196E-002 1 0 1.000000000000E+000 0.000000000000E+000 0 ""
  XDAT 10 -9.234704916504E-002 1 0 1.000000000000E+000 0.000000000000E+000 0 ""
  XDAT 11 3.046435193583E-001 1 0 1.000000000000E+000 0.000000000000E+000 0 ""
  XDAT 12 3.980710398162E-001 1 0 1.000000000000E+000 0.000000000000E+000 0 ""
  XDAT 13 1.053707370867E-001 1 0 1.000000000000E+000 0.000000000000E+000 0 ""
  XDAT 14 -8.288716837497E-002 1 0 1.000000000000E+000 0.000000000000E+000 0 ""
  XDAT 15 -6.476066101496E-002 1 0 1.000000000000E+000 0.000000000000E+000 0 ""
  XDAT 16 -6.898469764339E-001 1 0 1.000000000000E+000 0.000000000000E+000 0 ""
  XDAT 17 -1.887948072649E-001 1 0 1.000000000000E+000 0.000000000000E+000 0 ""
  XDAT 18 1.541884000933E-001 1 0 1.000000000000E+000 0.000000000000E+000 0 ""
  XDAT 19 6.189168835518E-002 1 0 1.000000000000E+000 0.000000000000E+000 0 ""
  XDAT 20 -1.132000396045E-001 1 0 1.000000000000E+000 0.000000000000E+000 0 ""
  XDAT 21 -9.152577405739E-002 1 0 1.000000000000E+000 0.000000000000E+000 0 ""
  XDAT 22 -3.602343298008E-001 1 0 1.000000000000E+000 0.000000000000E+000 0 ""
  XDAT 23 -5.060806123013E-001 1 0 1.000000000000E+000 0.000000000000E+000 0 ""
  DISZ 0
  GLAS MIRROR 0 0 1.5 4.0E+1 0 0 0 0 0 0 
  CONI 4.37973449989E-2
  DIAM 0 0 0 0 1 ""
  VCON
  POPS 0 0 0 0 0 0 0 0 1 1 1 1 0 0 0 0
SURF 58
  COMM LW Collimator De-Tilt
  TYPE COORDBRK
  FIMP 

  CURV 0.0 0 0.0 0.0 0
  HIDE 0 0 0 0 0 1 0 0 0 0
  MIRR 2 0
  SLAB 43
  PARM 1 0
  PARM 2 0
  PARM 3 0
  PARM 4 0
  PARM 5 0
  PARM 6 0
  DISZ 4.53231E+2
  PZUP 5.2E+1 -1. 0 0
  DIAM 0 0 0 0 1 ""
  POPS 0 0 0 0 0 0 0 0 1 1 1 1 0 0 0 0
SURF 59
  COMM SW Collimator Tilt
  TYPE COORDBRK
  FIMP 

  CURV 0.0 0 0.0 0.0 0
  HIDE 0 0 0 0 0 0 0 0 0 0
  MIRR 2 0
  SLAB 48
  PARM 1 -1.6E+2
  PARM 2 0
  PARM 3 0
  PARM 4 -2.
  PARM 5 0
  PARM 6 0
  DISZ 0
  DIAM 0 0 0 0 1 ""
  POPS 0 0 0 0 0 0 0 0 1 1 1 1 0 0 0 0
SURF 60
  COMM SW Collimator
  TYPE SZERNSAG
  FIMP 

  CURV 1.196216908242048100E-003 0 0 0 0 ""
  HIDE 0 0 0 0 0 0 0 0 0 0
  MIRR 2 2.5E+1
  SLAB 47
  PARM 0 0
  PARM 1 0
  PARM 2 0
  PARM 3 0
  PARM 4 0
  PARM 5 0
  PARM 6 0
  PARM 7 0
  PARM 8 0
  PARM 9 0
  PARM 10 0
  XDAT 1 2.100000000000E+001 0 0 1.000000000000E+000 0.000000000000E+000 0 ""
  XDAT 2 4.000000000000E+002 0 0 1.000000000000E+000 0.000000000000E+000 0 ""
  XDAT 3 0.000000000000E+000 0 0 1.000000000000E+000 0.000000000000E+000 0 ""
  XDAT 4 0.000000000000E+000 0 0 1.000000000000E+000 0.000000000000E+000 0 ""
  XDAT 5 0.000000000000E+000 0 0 1.000000000000E+000 0.000000000000E+000 0 ""
  XDAT 6 -2.374982768816E+001 0 0 1.000000000000E+000 0.000000000000E+000 0 ""
  XDAT 7 -5.987327584446E+000 0 0 1.000000000000E+000 0.000000000000E+000 0 ""
  XDAT 8 5.201739677541E+001 0 0 1.000000000000E+000 0.000000000000E+000 0 ""
  XDAT 9 9.213509673734E+000 0 0 1.000000000000E+000 0.000000000000E+000 0 ""
  XDAT 10 -3.137539559186E+000 0 0 1.000000000000E+000 0.000000000000E+000 0 ""
  XDAT 11 2.434760054785E-001 0 0 1.000000000000E+000 0.000000000000E+000 0 ""
  XDAT 12 -4.424032430573E+001 0 0 1.000000000000E+000 0.000000000000E+000 0 ""
  XDAT 13 -4.035028957438E+000 0 0 1.000000000000E+000 0.000000000000E+000 0 ""
  XDAT 14 1.048487174791E+001 0 0 1.000000000000E+000 0.000000000000E+000 0 ""
  XDAT 15 -1.469083270580E+000 0 0 1.000000000000E+000 0.000000000000E+000 0 ""
  XDAT 16 8.639193308936E+000 0 0 1.000000000000E+000 0.000000000000E+000 0 ""
  XDAT 17 -2.595355621342E+000 0 0 1.000000000000E+000 0.000000000000E+000 0 ""
  XDAT 18 -8.262750012795E-001 0 0 1.000000000000E+000 0.000000000000E+000 0 ""
  XDAT 19 2.406887434571E+000 0 0 1.000000000000E+000 0.000000000000E+000 0 ""
  XDAT 20 -4.818025366046E+000 0 0 1.000000000000E+000 0.000000000000E+000 0 ""
  XDAT 21 -8.819099287287E-001 0 0 1.000000000000E+000 0.000000000000E+000 0 ""
  XDAT 22 1.207850380796E+000 0 0 1.000000000000E+000 0.000000000000E+000 0 ""
  XDAT 23 7.079868515898E-001 0 0 1.000000000000E+000 0.000000000000E+000 0 ""
  DISZ 0
  GLAS MIRROR 0 0 1.5 4.0E+1 0 0 0 0 0 0 
  CONI 3.608937642885
  DIAM 2.686805389062E+2 0 0 0 1 ""
  POPS 0 0 0 0 0 0 0 0 1 1 1 1 0 0 0 0
  SQAP 8.0E+1 1.0E+2 0
  OBDC 1.750000000000E+002 -1.500000000000E+001
SURF 61
  COMM SW Collimator De-Tilt
  TYPE COORDBRK
  FIMP 

  CURV 0.0 0 0.0 0.0 0
  HIDE 0 0 0 0 0 0 0 0 0 0
  MIRR 2 0
  SLAB 46
  PARM 1 0
  PARM 2 0
  PARM 3 0
  PARM 4 0
  PARM 5 0
  PARM 6 0
  DISZ 3.06392E+2
  DIAM 0 0 0 0 1 ""
  POPS 0 0 0 0 0 0 0 0 1 1 1 1 0 0 0 0
SURF 62
  COMM LW Grating Chief Ray Align
  TYPE COORDBRK
  FIMP 

  CURV 0.0 0 0.0 0.0 0
  HIDE 0 0 0 0 0 1 0 0 0 0
  MIRR 2 0
  SLAB 52
  PARM 1 2.866667035372
  PPAR 1 -1 1 3
  PARM 2 0
  PARM 3 0
  PARM 4 1.639035265452E+1
  PPAR 4 -1 1 3
  PARM 5 0
  PARM 6 0
  DISZ 0
  DIAM 0 0 0 0 1 ""
  POPS 0 0 0 0 0 0 0 0 1 1 1 1 0 0 0 0
SURF 63
  COMM LW Grating Tilt
  TYPE COORDBRK
  FIMP 

  CURV 0.0 0 0.0 0.0 0
  HIDE 0 0 0 0 0 1 0 0 0 0
  MIRR 2 0
  SLAB 51
  PARM 1 0
  PARM 2 0
  PARM 3 0
  PARM 4 9.0
  PARM 5 -9.E+1
  PARM 6 0
  DISZ 0
  DIAM 0 0 0 0 1 ""
  POPS 0 0 0 0 0 0 0 0 1 1 1 1 0 0 0 0
SURF 64
  COMM LW Grating
  TYPE DGRATING
  FIMP 

  CURV 0.0 0 0 0 0 ""
  HIDE 0 0 0 0 0 1 0 0 0 0
  MIRR 2 2.5E+1
  SLAB 50
  PARM 1 2.273E-3
  PARM 2 1
  DISZ 0
  GLAS MIRROR 0 0 1.5 4.0E+1 0 0 0 0 0 0 
  DIAM 0 0 0 0 1 ""
  POPS 0 0 0 0 0 0 0 0 1 1 1 1 0 0 0 0
SURF 65
  COMM LW Grating De-Tilt
  TYPE COORDBRK
  FIMP 

  CURV 0.0 0 0.0 0.0 0
  HIDE 0 0 0 0 0 1 0 0 0 0
  MIRR 2 0
  SLAB 49
  PARM 1 0
  PARM 2 0
  PARM 3 0
  PARM 4 0
  PARM 5 9.0E+1
  PPAR 5 63 -1.000000000000E+000 0.000000000000E+000 0
  PARM 6 0
  DISZ 0
  DIAM 0 0 0 0 1 ""
  POPS 0 0 0 0 0 0 0 0 1 1 1 1 0 0 0 0
SURF 66
  COMM SW Grating Chief Ray Align
  TYPE COORDBRK
  FIMP 

  CURV 0.0 0 0.0 0.0 0
  HIDE 0 0 0 0 0 0 0 0 0 0
  MIRR 2 0
  SLAB 56
  PARM 1 4.765012829216E+1
  PPAR 1 -1 1 3
  PARM 2 0
  PARM 3 0
  PARM 4 -2.018812206589E+1
  PARM 5 0
  PARM 6 0
  DISZ 0
  DIAM 0 0 0 0 1 ""
  POPS 0 0 0 0 0 0 0 0 1 1 1 1 0 0 0 0
SURF 67
  COMM SW Grating Tilt
  TYPE COORDBRK
  FIMP 

  CURV 0.0 0 0.0 0.0 0
  HIDE 0 0 0 0 0 0 0 0 0 0
  MIRR 2 0
  SLAB 55
  PARM 1 0
  PARM 2 0
  PARM 3 0
  PARM 4 -8.
  PARM 5 9.0E+1
  PARM 6 0
  DISZ 0
  DIAM 0 0 0 0 1 ""
  POPS 0 0 0 0 0 0 0 0 1 1 1 1 0 0 0 0
SURF 68
  COMM SW Grating
  TYPE DGRATING
  FIMP 

  CURV 0.0 0 0 0 0 ""
  HIDE 0 0 0 0 0 0 0 0 0 0
  MIRR 2 2.5E+1
  SLAB 54
  PARM 1 2.99E-3
  PARM 2 1
  DISZ 0
  GLAS MIRROR 0 0 1.5 4.0E+1 0 0 0 0 0 0 
  DIAM 1.084940498007E+2 0 0 0 1 ""
  POPS 0 0 0 0 0 0 0 0 1 1 1 1 0 0 0 0
  SQAP 7.0E+1 8.5E+1 0
  OBDC -5.000000000000E+000 -1.800000000000E+001
SURF 69
  COMM SW Grating De-Tilt
  TYPE COORDBRK
  FIMP 

  CURV 0.0 0 0.0 0.0 0
  HIDE 0 0 0 0 0 0 0 0 0 0
  MIRR 2 0
  SLAB 53
  PARM 1 0
  PARM 2 0
  PARM 3 0
  PARM 4 0
  PARM 5 -9.E+1
  PPAR 5 67 -1.000000000000E+000 0.000000000000E+000 0
  PARM 6 0
  DISZ 0
  DIAM 0 0 0 0 1 ""
  POPS 0 0 0 0 0 0 0 0 1 1 1 1 0 0 0 0
SURF 70
  COMM LW Camera Chief Ray Align
  TYPE COORDBRK
  FIMP 

  CURV 0.0 0 0.0 0.0 0
  HIDE 0 0 0 0 0 1 0 0 0 0
  MIRR 2 0
  SLAB 70
  PARM 1 0
  PPAR 1 -1 1 3
  PARM 2 0
  PARM 3 0
  PARM 4 -4.293501559467E+1
  PPAR 4 -1 1 3
  PARM 5 0
  PARM 6 0
  DISZ -4.833804068753E+2
  VDSZ 0 0
  DIAM 0 0 0 0 1 ""
  POPS 0 0 0 0 0 0 0 0 1 1 1 1 0 0 0 0
SURF 71
  COMM LW Camera Tilt
  TYPE COORDBRK
  FIMP 

  CURV 0.0 0 0.0 0.0 0
  HIDE 0 0 0 0 0 1 0 0 0 0
  MIRR 2 0
  SLAB 69
  PARM 1 1.491990033913E+2
  PARM 2 0
  PARM 3 0
  PARM 4 1.649264931826
  PARM 5 0
  PARM 6 0
  DISZ 0